/*--------------------------------*- C++ -*----------------------------------*\
  =========                 |
  \\      /  F ield         | OpenFOAM: The Open Source CFD Toolbox
   \\    /   O peration     | Website:  https://openfoam.org
    \\  /    A nd           | Version:  dev
     \\/     M anipulation  |
\*---------------------------------------------------------------------------*/
FoamFile
{
    version     2.0;
    format      ascii;
    class       dictionary;
    location    "constant";
    object      chemistryProperties;
}
// * * * * * * * * * * * * * * * * * * * * * * * * * * * * * * * * * * * * * //

chemistryType
{
    solver            ode;
    method            standard;
}

chemistry       on;
initialChemicalTimeStep 1e-7;
maxChemicalTimeStep     1e-7;

odeCoeffs
{
    solver          Rosenbrock34;
    absTol          1e-10;
    relTol          1e-06;
}


// ************************************************************************* //
